数据采集
*SPICE Netlist generated by Advanced Sim server on 2019/4/22 16:58:16

*Schematic Netlist:
L1 NetD1_2 VCC5V 33uH

.SAVE 0 NetD1_2 VCC5V @L1[i] @L1[p]

*PLOT TRAN -1 1 A=NetD1_2
*PLOT OP -1 1 A=NetD1_2

*Selected Circuit Analyses:
.TRAN 2E-8 5E-6 0 2E-8
.OP

.END
